power-flow-agent/results/ieee14/2026-09-16/gpt-5.4/pfagent/traces/21_case14-parameterized-001-s0.transcript.txt
==============================================================================
TRANSCRIPT  pfagent  |  openrouter:openai/gpt-5.4  |  case14  |  case14-parameterized-001-s0  run 0
==============================================================================
date: 2026-09-16   seed: 0   difficulty: parameterized   tool variant: None

[system]   (hash 7da5e2a37ec4, from methods/pfagent/method.json prompt_files)
You are a power system power-flow analysis assistant. You help the user complete power system analysis tasks from natural-language requests.

## What you can do
You complete tasks by calling tool functions:
1. Load an IEEE standard test system (14, 30, 57, 118, 300 buses)
2. Run AC power flow
3. Modify the load at a bus and re-solve
4. Disconnect or reconnect a line and re-solve
5. Query the network status
6. Run an N-1 contingency analysis (disconnect branches one at a time and rank the worst cases)
7. Generate remedial-action suggestions (what-if load shedding or voltage adjustment) to reduce violation risk

## Key rules
- Never fabricate any numerical result. Every voltage, power, loss, or loading value must come from a tool return value.
- If a tool reports an error or a non-converged power flow, say so explicitly and do not report numbers for that state.
- If the request is ambiguous, state the interpretation you are using.
- Bus and line identifiers in the request are MATPOWER 1-based ids; pass them to the tools as given, unless the request itself states a different indexing convention for that identifier (e.g. "(0-based)"), in which case convert it to the MATPOWER 1-based id before calling any tool.
- After a network modification, re-solve before reporting any value.
- Always reply in English.

## Reply format
After each analysis, reply in this structure:
1. One-sentence summary
2. Key numbers (total load, total generation, total losses, voltage range) taken from the tool outputs
3. Violations, if any
4. Suggested next step

[user]
Load the IEEE 14-bus system and run an N-1 contingency analysis ranked by min voltage and report the 3 worst outages.

[tools available to the model]   (function-calling schema, --tool-variant v1; enum values and defaults as sent)
  load_case(case_name: string* in {case14, case30, case57, case118, case300})  Load IEEE test case.
  run_powerflow()  Run power flow on current case.
  modify_load(bus_id: integer*, p_mw: number*, q_mvar: number)  Modify bus load and recompute.
  disconnect_line(from_bus: integer*, to_bus: integer*)  Disconnect line/branch between two buses and recompute.
  reconnect_line(from_bus: integer*, to_bus: integer*)  Reconnect line/branch between two buses and recompute.
  get_most_loaded_branch()  Get most loaded branch.
  run_n1_contingency(top_k: integer (default 5), criteria: string in {max_violations, max_overload, min_voltage} (default max_violations), max_candidates: integer (default 0))  Run N-1 contingency analysis.
  recommend_remedial_actions(max_actions: integer (default 5), allow_load_shed: boolean (default True), allow_voltage_control: boolean (default True), include_best_comparison: boolean (default True))  Recommend remedial actions.
  apply_remedial_action(action_index: integer*, confirmed: boolean (default False))  Apply one remedial action by index.
  get_status()  Get current network status.
  generate_plot(plot_type: string* in {voltage_heatmap, flow_diagram, violation_overview, comparison})  Generate one plot.

--- round 1 ---
[assistant]   (769 in / 20 out tokens, 1.1 s)
(no text)
tool_call  load_case(case_name="case14")
[tool load_case]   (gate: not applied)
{"case_name": "case14", "n_buses": 14, "n_generators": 5, "n_lines": 20, "n_loads": 11, "total_load_mw": 270.1361769951196, "total_gen_capacity_mw": 772.4000000000001}

--- round 2 ---
[assistant]   (870 in / 15 out tokens, 1.2 s)
(no text)
tool_call  run_powerflow()
[tool run_powerflow]   (gate: pass)
{"case_name": "case14", "converged": true, "bus_voltages": [{"bus_id": 1, "vm_pu": 1.06, "va_deg": 0.0, "is_violation": true, "violation_type": "overvoltage"}, {"bus_id": 2, "vm_pu": 1.0450000000000002, "va_deg": -5.21506229207644, "is_violation": false, "violation_type": null}, {"bus_id": 3, "vm_pu": 1.01, "va_deg": -13.507516402887106, "is_violation": false, "violation_type": null}, {"bus_id": 4, "vm_pu": 1.0167311150752496, "va_deg": -10.80154886007739, "is_violation": false, "violation_type": null}, {"bus_id": 5, "vm_pu": 1.0186755210035223, "va_deg": -9.17194939329794, "is_violation": false, "violation_type": null}, {"bus_id": 6, "vm_pu": 1.07, "va_deg": -14.807090824802046, "is_violation": true, "violation_type": "overvoltage"}, {"bus_id": 7, "vm_pu": 1.0606471339089072, "va_deg": -13.923988291052028, "is_violation": true, "violation_type": "overvoltage"}, {"bus_id": 8, "vm_pu": 1.09, "va_deg": -13.923988291052028, "is_violation": true, "violation_type": "overvoltage"}, {"bus_id": 9, "vm_pu": 1.054619109802744, "va_deg": -15.542608723299168, "is_violation": true, "violation_type": "overvoltage"}, {"bus_id": 10, "vm_pu": 1.0502492736210673, "va_deg": -15.683417645942828, "is_violation": true, "violation_type": "overvoltage"}, {"bus_id": 11, "vm_pu": 1.0567307190774915, "va_deg": -15.367578730924901, "is_violation": true, "violation_type": "overvoltage"}, {"bus_id": 12, "vm_pu": 1.0548861133734393, "va_deg": -15.6766119573892, "is_violation": true, "violation_type": "overvoltage"}, {"bus_id": 13, "vm_pu": 1.0496270096826394, "va_deg": -15.767133817110375, "is_violation": false, "violation_type": null}, {"bus_id": 14, "vm_pu": 1.0349476070969634, "va_deg": -16.614740756722405, "is_violation": false, "violation_type": null}], "line_flows": [{"line_id": 0, "from_bus": 1, "to_bus": 2, "p_from_mw": 163.91527459768187, "q_from_mvar": -22.032550891591704, "loading_percent": 1.5760376469131694, "is_violation": false}, {"line_id": 1, "from_bus": 1, "to_bus": 5, "p_from_mw": 78.80153019367255, "q_from_mvar": 3.9761247101587447, "loading_percent": 0.7521948962620357, "is_violation": false}, {"line_id": 2, "from_bus": 2, "to_bus": 3, "p_from_mw": 78.1948733813964, "q_from_mvar": 3.0972655624765473, "loading_percent": 0.7564273357900341, "is_violation": false}, {"line_id": 3, "from_bus": 2, "to_bus": 4, "p_from_mw": 58.74510813063236, "q_from_mvar": -1.6008902890347092, "loading_percent": 0.5680432785803083, "is_violation": false}, {"line_id": 4, "from_bus": 2, "to_bus": 5, "p_from_mw": 43.26479612728538, "q_from_mvar": 1.2205917746338064, "loading_percent": 0.4197037232379954, "is_violation": false}, {"line_id": 5, "from_bus": 3, "to_bus": 4, "p_from_mw": -25.696566122119478, "q_from_mvar": 6.109617560515054, "loading_percent": 0.267189758842098, "is_violation": false}, {"line_id": 6, "from_bus": 4, "to_bus": 5, "p_from_mw": -64.62294893625571, "q_from_mvar": 16.787259335279877, "loading_percent": 0.6633239583979594, "is_violation": false}, {"line_id": 7, "from_bus": 6, "to_bus": 11, "p_from_mw": 7.3147074849204365, "q_from_mvar": 3.6725600767265103, "loading_percent": 0.0772670949285145, "is_violation": false}, {"line_id": 8, "from_bus": 6, "to_bus": 12, "p_from_mw": 7.927692929900029, "q_from_mvar": 2.5635855400504957, "loading_percent": 0.07865461815630377, "is_violation": false}, {"line_id": 9, "from_bus": 6, "to_bus": 13, "p_from_mw": 18.288220765138327, "q_from_mvar": 7.568203832974023, "loading_percent": 0.18684357721898123, "is_violation": false}, {"line_id": 10, "from_bus": 9, "to_bus": 10, "p_from_mw": 4.62107550813921, "q_from_mvar": 3.7182170957377294, "loading_percent": 0.05680857030734792, "is_violation": false}, {"line_id": 11, "from_bus": 9, "to_bus": 14, "p_from_mw": 9.167599071047379, "q_from_mvar": 3.4337194836883, "loading_percent": 0.09376309345346005, "is_violation": false}, {"line_id": 12, "from_bus": 10, "to_bus": 11, "p_from_mw": -3.9708186826798086, "q_from_mvar": -1.8390246026297359, "loading_percent": 0.04208721056799966, "is_violation": false}, {"line_id": 13, "from_bus": 12, "to_bus": 13, "p_from_mw": 1.7751381357845697, "q_from_mvar": 0.8142396280026041, "loading_percent": 0.018700592098260943, "is_violation": false}, {"line_id": 14, "from_bus": 13, "to_bus": 14, "p_from_mw": 5.4854747445226755, "q_from_mvar": 1.767266789498405, "loading_percent": 0.05546106547784602, "is_violation": false}, {"line_id": 100000, "from_bus": 4, "to_bus": 7, "p_from_mw": 28.720963973149015, "q_from_mvar": -9.679231509890714, "loading_percent": 0.301104668795331, "is_violation": false}, {"line_id": 100001, "from_bus": 4, "to_bus": 9, "p_from_mw": 16.44446281859419, "q_from_mvar": -0.3306206916580898, "loading_percent": 0.16340530059877523, "is_violation": false}, {"line_id": 100002, "from_bus": 5, "to_bus": 6, "p_from_mw": 45.56700979264842, "q_from_mvar": 12.21738050449168, "loading_percent": 0.46779344037747567, "is_violation": false}, {"line_id": 100003, "from_bus": 7, "to_bus": 8, "p_from_mw": -6.480578245014787e-15, "q_from_mvar": -17.674160256332524, "loading_percent": 0.16831881741681937, "is_violation": false}, {"line_id": 100004, "from_bus": 7, "to_bus": 9, "p_from_mw": 28.720963972758636, "q_from_mvar": 6.217555462053848, "loading_percent": 0.279858222459649, "is_violation": false}], "total_generation_mw": 284.891539929624, "total_load_mw": 270.1361769951196, "total_loss_mw": 14.755362940967782, "voltage_violations": [{"bus_id": 1, "vm_pu": 1.06, "va_deg": 0.0, "is_violation": true, "violation_type": "overvoltage"}, {"bus_id": 6, "vm_pu": 1.07, "va_deg": -14.807090824802046, "is_violation": true, "violation_type": "overvoltage"}, {"bus_id": 7, "vm_pu": 1.0606471339089072, "va_deg": -13.923988291052028, "is_violation": true, "violation_type": "overvoltage"}, {"bus_id": 8, "vm_pu": 1.09, "va_deg": -13.923988291052028, "is_violation": true, "violation_type": "overvoltage"}, {"bus_id": 9, "vm_pu": 1.054619109802744, "va_deg": -15.542608723299168, "is_violation": true, "violation_type": "overvoltage"}, {"bus_id": 10, "vm_pu": 1.0502492736210673, "va_deg": -15.683417645942828, "is_violation": true, "violation_type": "overvoltage"}, {"bus_id": 11, "vm_pu": 1.0567307190774915, "va_deg": -15.367578730924901, "is_violation": true, "violation_type": "overvoltage"}, {"bus_id": 12, "vm_pu": 1.0548861133734393, "va_deg": -15.6766119573892, "is_violation": true, "violation_type": "overvoltage"}], "thermal_violations": [], "summary_text": "", "solver_backend": "pandapower", "llm_prompt": null, "llm_response": null}

--- round 3 ---
[assistant]   (3550 in / 33 out tokens, 0.9 s)
(no text)
tool_call  run_n1_contingency(top_k=3, criteria="min_voltage", max_candidates=0)
[tool run_n1_contingency]   (gate: not applied)
{"plot_type": "n1_ranking", "figure_json": "<plotly figure, 10 KB, omitted; see the .json trace>", "n1_report": {"case_name": "case14", "base_converged": true, "top_k": 3, "criteria": "min_voltage", "results": [{"branch_id": 100002, "branch_type": "trafo", "from_bus": 5, "to_bus": 6, "converged": true, "n_voltage_violations": 9, "n_thermal_violations": 0, "delta_voltage_violations": 1, "delta_thermal_violations": 0, "worst_vm_pu": 1.01, "worst_loading_percent": 1.6236094679351027, "score": 179900.0, "notes": ""}, {"branch_id": 11, "branch_type": "line", "from_bus": 9, "to_bus": 14, "converged": true, "n_voltage_violations": 8, "n_thermal_violations": 0, "delta_voltage_violations": 0, "delta_thermal_violations": 0, "worst_vm_pu": 0.9977244408561964, "worst_loading_percent": 1.5758069125967382, "score": 170022.75559143804, "notes": ""}, {"branch_id": 5, "branch_type": "line", "from_bus": 3, "to_bus": 4, "converged": true, "n_voltage_violations": 8, "n_thermal_violations": 0, "delta_voltage_violations": 0, "delta_thermal_violations": 0, "worst_vm_pu": 1.0100000000000002, "worst_loading_percent": 1.637337145530324, "score": 169900.0, "notes": ""}], "summary_text": "N-1 completed over 20 branches. Worst outage: 5-6 (trafo), V violations=9 (delta=1), thermal violations=0 (delta=0)."}}

--- round 4 ---
[assistant]   (8485 in / 434 out tokens, 3.9 s)
1. **Summary:** I loaded the IEEE 14-bus system, solved the base AC power flow, and ran an N-1 contingency analysis ranked by **minimum bus voltage**; the 3 worst outages are **5-6**, **9-14**, and **3-4**.

2. **Key numbers:**  
- Total load: **270.136 MW**  
- Total generation: **284.892 MW**  
- Total losses: **14.755 MW**  
- Base-case voltage range: **1.0100 to 1.0900 pu**

**Top 3 worst outages by minimum voltage:**
1. **Outage 5-6 (transformer)**  
   - Converged: **Yes**  
   - Worst voltage: **1.0100 pu**  
   - Voltage violations: **9**  
   - Thermal violations: **0**

2. **Outage 9-14 (line)**  
   - Converged: **Yes**  
   - Worst voltage: **0.9977 pu**  
   - Voltage violations: **8**  
   - Thermal violations: **0**

3. **Outage 3-4 (line)**  
   - Converged: **Yes**  
   - Worst voltage: **1.0100 pu**  
   - Voltage violations: **8**  
   - Thermal violations: **0**

3. **Violations, if any:**  
- The **base case already has 8 voltage violations**, all reported as **overvoltage**.  
- Under the **5-6 outage**, voltage violations increase to **9**.  
- Under the **9-14** and **3-4** outages, voltage violations remain at **8**.  
- **No thermal violations** were reported in the top 3 contingencies.

4. **Suggested next step:**  
I can next generate a **violation overview plot** or run **remedial action recommendations** for the worst outage (**5-6**) to see how to reduce the added voltage violation risk.

[final answer]
1. **Summary:** I loaded the IEEE 14-bus system, solved the base AC power flow, and ran an N-1 contingency analysis ranked by **minimum bus voltage**; the 3 worst outages are **5-6**, **9-14**, and **3-4**.

2. **Key numbers:**  
- Total load: **270.136 MW**  
- Total generation: **284.892 MW**  
- Total losses: **14.755 MW**  
- Base-case voltage range: **1.0100 to 1.0900 pu**

**Top 3 worst outages by minimum voltage:**
1. **Outage 5-6 (transformer)**  
   - Converged: **Yes**  
   - Worst voltage: **1.0100 pu**  
   - Voltage violations: **9**  
   - Thermal violations: **0**

2. **Outage 9-14 (line)**  
   - Converged: **Yes**  
   - Worst voltage: **0.9977 pu**  
   - Voltage violations: **8**  
   - Thermal violations: **0**

3. **Outage 3-4 (line)**  
   - Converged: **Yes**  
   - Worst voltage: **1.0100 pu**  
   - Voltage violations: **8**  
   - Thermal violations: **0**

3. **Violations, if any:**  
- The **base case already has 8 voltage violations**, all reported as **overvoltage**.  
- Under the **5-6 outage**, voltage violations increase to **9**.  
- Under the **9-14** and **3-4** outages, voltage violations remain at **8**.  
- **No thermal violations** were reported in the top 3 contingencies.

4. **Suggested next step:**  
I can next generate a **violation overview plot** or run **remedial action recommendations** for the worst outage (**5-6**) to see how to reduce the added voltage violation risk.

[verification gate]   outcome: pass_first after 1 attempt(s)
attempt 1: pass
      converged              pass  residual 0
      balance                pass  residual 6.46e-09
      no_isolated_buses      pass  residual 0
      faithfulness           pass  residual 0
      currency               pass  residual 0
